26

N 135.665100098 -15.358300209 0.132499993
C 134.835601807 -14.470600128 -0.407800019
N 134.596893311 -13.554900169 0.523599982
C 135.267196655 -13.878700256 1.610399961
C 135.936096191 -15.009499550 1.362599969
C 135.240707397 -13.107199669 2.887799978
C 135.533905029 -13.732799530 4.053899765
C 135.523895264 -13.069499969 5.228400230
C 135.199493408 -11.748900414 5.281000137
C 134.902297974 -11.117300034 4.108900070
C 134.911300659 -11.777400017 2.903500080
Br 135.136199951 -10.813799858 6.951700211
N 126.852096558 -19.035499573 0.252200007
C 126.092102051 -18.029899597 -0.236000001
N 126.872100830 -17.254800797 -1.032199860
C 128.109802246 -17.770700455 -1.032500029
C 128.088897705 -18.881500244 -0.225600004
C 129.314498901 -17.210599899 -1.779099941
C 130.585006714 -17.718500137 -1.526399851
C 131.687896729 -17.209499359 -2.186500072
C 131.521102905 -16.184400558 -3.105200052
C 130.258605957 -15.664400101 -3.369899750
C 129.154800415 -16.179500580 -2.705800056
C 133.855392456 -14.976082802 -2.587730408
S 132.905349731 -15.431254387 -3.911318302
C 134.265762329 -14.571650505 -1.617502451
